examples/feeders/22_SE001_1/012_cargasMT_1_1.dss
New Load.MT_1723589_M1 bus1=478491.1.2.3.4 phases=3 conn=Delta model=2 kv=23.1 kw=9.1672995 pf=0.92 daily=MT5_DU status=variable vmaxpu=1.5 vminpu=0.93
New Load.MT_1723589_M2 bus1=478491.1.2.3.4 phases=3 conn=Delta model=3 kv=23.1 kw=9.1672995 pf=0.92 daily=MT5_DU status=variable vmaxpu=1.5 vminpu=0.93
New Load.MT_1730179_M1 bus1=667801.1.2.3.4 phases=3 conn=Delta model=2 kv=23.1 kw=24.2939925 pf=0.92 daily=MT5_DU status=variable vmaxpu=1.5 vminpu=0.93
New Load.MT_1730179_M2 bus1=667801.1.2.3.4 phases=3 conn=Delta model=3 kv=23.1 kw=24.2939925 pf=0.92 daily=MT5_DU status=variable vmaxpu=1.5 vminpu=0.93
New Load.MT_2008791_M1 bus1=802691.1.2.3.4 phases=3 conn=Delta model=2 kv=23.1 kw=2.721991 pf=0.92 daily=MT1_DU status=variable vmaxpu=1.5 vminpu=0.93
New Load.MT_2008791_M2 bus1=802691.1.2.3.4 phases=3 conn=Delta model=3 kv=23.1 kw=2.721991 pf=0.92 daily=MT1_DU status=variable vmaxpu=1.5 vminpu=0.93
New Load.MT_2022430_M1 bus1=320651.1.2.3.4 phases=3 conn=Delta model=2 kv=23.1 kw=1.488361 pf=0.92 daily=MT3_DU status=variable vmaxpu=1.5 vminpu=0.93
New Load.MT_2022430_M2 bus1=320651.1.2.3.4 phases=3 conn=Delta model=3 kv=23.1 kw=1.488361 pf=0.92 daily=MT3_DU status=variable vmaxpu=1.5 vminpu=0.93
New Load.MT_2034609_M1 bus1=693261.1.2.3.4 phases=3 conn=Delta model=2 kv=23.1 kw=2.3728145 pf=0.92 daily=MT5_DU status=variable vmaxpu=1.5 vminpu=0.93
New Load.MT_2034609_M2 bus1=693261.1.2.3.4 phases=3 conn=Delta model=3 kv=23.1 kw=2.3728145 pf=0.92 daily=MT5_DU status=variable vmaxpu=1.5 vminpu=0.93
New Load.MT_2036189_M1 bus1=201661.1.2.3.4 phases=3 conn=Delta model=2 kv=23.1 kw=6.037062 pf=0.92 daily=MT4_DU status=variable vmaxpu=1.5 vminpu=0.93
New Load.MT_2036189_M2 bus1=201661.1.2.3.4 phases=3 conn=Delta model=3 kv=23.1 kw=6.037062 pf=0.92 daily=MT4_DU status=variable vmaxpu=1.5 vminpu=0.93
New Load.MT_2036816_M1 bus1=789601.1.2.3.4 phases=3 conn=Delta model=2 kv=23.1 kw=1.722018 pf=0.92 daily=MT5_DU status=variable vmaxpu=1.5 vminpu=0.93
New Load.MT_2036816_M2 bus1=789601.1.2.3.4 phases=3 conn=Delta model=3 kv=23.1 kw=1.722018 pf=0.92 daily=MT5_DU status=variable vmaxpu=1.5 vminpu=0.93
New Load.MT_2233242_M1 bus1=727031.1.2.3.4 phases=3 conn=Delta model=2 kv=23.1 kw=3.318927 pf=0.92 daily=MT2_DU status=variable vmaxpu=1.5 vminpu=0.93
New Load.MT_2233242_M2 bus1=727031.1.2.3.4 phases=3 conn=Delta model=3 kv=23.1 kw=3.318927 pf=0.92 daily=MT2_DU status=variable vmaxpu=1.5 vminpu=0.93
New Load.MT_2237809_M1 bus1=804761.1.2.3.4 phases=3 conn=Delta model=2 kv=23.1 kw=0.585105 pf=0.92 daily=MT6_DU status=variable vmaxpu=1.5 vminpu=0.93
New Load.MT_2237809_M2 bus1=804761.1.2.3.4 phases=3 conn=Delta model=3 kv=23.1 kw=0.585105 pf=0.92 daily=MT6_DU status=variable vmaxpu=1.5 vminpu=0.93
New Load.MT_2638515_M1 bus1=809892.1.2.3.4 phases=3 conn=Delta model=2 kv=23.1 kw=0 pf=0.92 daily=MT3_DU status=variable vmaxpu=1.5 vminpu=0.93
New Load.MT_2638515_M2 bus1=809892.1.2.3.4 phases=3 conn=Delta model=3 kv=23.1 kw=0 pf=0.92 daily=MT3_DU status=variable vmaxpu=1.5 vminpu=0.93
New Load.MT_2718107_M1 bus1=209981.1.2.3.4 phases=3 conn=Delta model=2 kv=23.1 kw=0.402379 pf=0.92 daily=MT4_DU status=variable vmaxpu=1.5 vminpu=0.93
New Load.MT_2718107_M2 bus1=209981.1.2.3.4 phases=3 conn=Delta model=3 kv=23.1 kw=0.402379 pf=0.92 daily=MT4_DU status=variable vmaxpu=1.5 vminpu=0.93
New Load.MT_510065_M1 bus1=757781.1.2.3.4 phases=3 conn=Delta model=2 kv=23.1 kw=16.1879155 pf=0.92 daily=MT6_DU status=variable vmaxpu=1.5 vminpu=0.93
New Load.MT_510065_M2 bus1=757781.1.2.3.4 phases=3 conn=Delta model=3 kv=23.1 kw=16.1879155 pf=0.92 daily=MT6_DU status=variable vmaxpu=1.5 vminpu=0.93
